testData/tamu2000/pfcases_100_zone3/Equ_tx2000_hr_4739_mod_v23_zone3_pslf.raw
0  100.000 
THIS IS A SYNTHETIC POWER SYSTEM MODEL THAT DOES NOT REPRESE
DATA RESEARCH PROJECT AND CONTAINS NO CEII.
1004,  2,  30.622,  -13.982,  0.000,  0.000,  1,  1.02678,  -60.2047,  'O DONNEL',  230.00,  9
1021,  2,  42.321,  -23.581,  0.000,  0.000,  1,  1.00858,  -57.9031,  'BIG SPRI',  13.800,  9
1023,  2,  13.781,  -5.454,  0.000,  0.000,  1,  1.01000,  -56.6527,  'O DONNEL',  13.800,  9
1033,  2,  171.530,  -27.336,  0.000,  0.000,  1,  1.00000,  -57.6358,  'MCCAMEY ',  230.00,  9
1039,  2,  16.777,  -6.978,  0.000,  0.000,  1,  1.00000,  -54.8810,  'FORT STO',  22.000,  9
1048,  2,  102.874,  -0.342,  0.000,  0.000,  1,  1.00000,  -37.0950,  'MONAHANS',  18.000,  9
1049,  2,  94.987,  11.406,  0.000,  0.000,  1,  1.00000,  -29.9470,  'MONAHANS',  18.000,  9
1053,  2,  58.059,  -13.920,  0.000,  0.000,  1,  1.00461,  -51.0605,  'MONAHANS',  230.00,  9
1063,  2,  80.310,  -2.557,  0.000,  0.000,  1,  1.01816,  -47.6834,  'BIG SPRI',  13.800,  9
1066,  2,  40.564,  -4.910,  0.000,  0.000,  1,  1.00000,  -55.6030,  'BIG SPRI',  13.800,  9
1070,  2,  43.979,  -0.224,  0.000,  0.000,  1,  1.04000,  -58.3647,  'IRAAN 1 ',  13.800,  9
1072,  3,  62.684,  -3.396,  0.000,  0.000,  1,  1.01000,  -51.7227,  'ODESSA 1',  18.000,  9
1073,  2,  42.478,  -1.671,  0.000,  0.000,  1,  1.01000,  -49.4539,  'ODESSA 1',  18.000,  9
1074,  2,  43.992,  0.436,  0.000,  0.000,  1,  1.01000,  -49.8340,  'ODESSA 1',  18.000,  9
1075,  2,  52.116,  0.035,  0.000,  0.000,  1,  1.01000,  -51.3967,  'ODESSA 1',  18.000,  9
1076,  2,  114.241,  -10.307,  0.000,  0.000,  1,  1.01000,  -54.5488,  'ODESSA 1',  18.000,  9
1077,  2,  45.078,  0.002,  0.000,  0.000,  1,  1.01000,  -50.0869,  'ODESSA 1',  18.000,  9
1081,  2,  106.719,  -32.258,  0.000,  0.000,  1,  1.01000,  -54.5827,  'ODESSA 1',  230.00,  9
1082,  2,  67.918,  -31.569,  0.000,  0.000,  1,  1.01065,  -56.9010,  'FORT STO',  115.00,  9
2004,  2,  123.417,  -20.594,  0.000,  0.000,  2,  1.02000,  -68.5195,  'SAVOY 2 ',  13.800,  11
2005,  2,  107.027,  -18.224,  0.000,  0.000,  2,  1.02000,  -68.3584,  'SAVOY 3 ',  13.800,  11
2006,  2,  71.871,  -12.050,  0.000,  0.000,  2,  1.02000,  -67.7386,  'SAVOY 4 ',  13.800,  11
2013,  2,  6.568,  -11.701,  0.000,  0.000,  2,  1.04433,  -58.0492,  'PANHANDL',  18.000,  10
2019,  2,  9.973,  32.572,  0.000,  0.000,  2,  1.04000,  -58.1396,  'PANHANDL',  20.000,  10
2024,  2,  88.527,  -13.186,  0.000,  0.000,  2,  1.02173,  -67.5301,  'PARIS 2 ',  13.800,  11
2042,  2,  7.068,  -1.922,  0.000,  0.000,  2,  1.03015,  -55.5329,  'PANHANDL',  18.000,  10
2057,  3,  277.065,  -75.227,  0.000,  0.000,  2,  0.99000,  -65.0218,  'WICHITA ',  18.000,  11
2059,  2,  4.131,  -0.981,  0.000,  0.000,  2,  1.02841,  -54.1750,  'WHITE DE',  13.800,  10
2095,  2,  6.533,  -0.720,  0.000,  0.000,  2,  1.03395,  -56.5547,  'PANHANDL',  13.800,  10
2100,  2,  18.303,  11.320,  0.000,  0.000,  2,  1.02120,  -58.6064,  'RALLS 1 ',  18.000,  10
2103,  2,  178.394,  -23.312,  0.000,  0.000,  2,  1.02240,  -69.4826,  'SHERMAN ',  20.000,  11
2104,  2,  132.514,  -17.846,  0.000,  0.000,  2,  1.02126,  -69.3111,  'SHERMAN ',  20.000,  11
2105,  2,  81.883,  -12.242,  0.000,  0.000,  2,  1.01862,  -68.8863,  'SHERMAN ',  20.000,  11
2115,  2,  61.550,  -10.297,  0.000,  0.000,  2,  1.01872,  -66.4196,  'PARIS 1 ',  13.800,  11
2116,  2,  109.634,  -15.995,  0.000,  0.000,  2,  1.02249,  -67.5102,  'PARIS 1 ',  13.800,  11
2117,  2,  54.879,  -8.539,  0.000,  0.000,  2,  1.01685,  -66.0620,  'PARIS 1 ',  13.800,  11
2118,  2,  54.319,  -8.888,  0.000,  0.000,  2,  1.01585,  -65.7754,  'PARIS 1 ',  13.800,  11
2119,  2,  86.764,  -13.670,  0.000,  0.000,  2,  1.02159,  -67.2537,  'PARIS 1 ',  13.800,  11
2120,  2,  53.686,  -8.725,  0.000,  0.000,  2,  1.01641,  -65.8894,  'PARIS 1 ',  13.800,  11
2123,  2,  32.337,  -13.252,  0.000,  0.000,  2,  1.03765,  -56.4961,  'PANHANDL',  161.00,  10
2127,  2,  196.584,  -204.706,  0.000,  0.000,  2,  1.05356,  -60.1037,  'MIAMI 0 ',  500.00,  10
3017,  2,  43.280,  -2.724,  0.000,  0.000,  3,  1.01000,  -64.3757,  'BLACKWEL',  18.000,  27
3020,  2,  134.953,  -15.172,  0.000,  0.000,  3,  1.03000,  -68.7909,  'CHRISTOV',  13.800,  27
3039,  2,  27.854,  -2.142,  0.000,  0.000,  3,  1.04000,  -62.2517,  'ROSCOE 2',  13.800,  27
3045,  2,  15.022,  -1.203,  0.000,  0.000,  3,  1.04000,  -58.5030,  'SILVER 4',  13.800,  27
3048,  2,  903.183,  -663.144,  0.000,  0.000,  3,  1.04530,  -66.4024,  'ROSCOE 5',  500.00,  27
3055,  2,  60.515,  -3.089,  0.000,  0.000,  3,  1.04000,  -63.3273,  'WINGATE ',  13.800,  27
3056,  2,  35.582,  -0.533,  0.000,  0.000,  3,  1.04000,  -62.5648,  'WINGATE ',  13.800,  27
3057,  2,  35.889,  -0.894,  0.000,  0.000,  3,  1.04000,  -62.6130,  'WINGATE ',  13.800,  27
3060,  2,  13.878,  0.243,  0.000,  0.000,  3,  1.04000,  -59.9538,  'STERLING',  18.000,  27
3061,  2,  18.516,  -0.324,  0.000,  0.000,  3,  1.04000,  -60.5951,  'STERLING',  18.000,  27
3062,  2,  29.890,  -2.756,  0.000,  0.000,  3,  1.04000,  -61.3897,  'STERLING',  18.000,  27
3063,  2,  23.280,  -1.128,  0.000,  0.000,  3,  1.04000,  -61.0476,  'STERLING',  18.000,  27
3068,  2,  38.159,  -0.075,  0.000,  0.000,  3,  1.04000,  -64.0921,  'TRENT 1 ',  20.000,  27
3071,  2,  44.790,  -7.617,  0.000,  0.000,  3,  1.00550,  -64.4196,  'NOLAN 1 ',  24.000,  27
3081,  2,  15.381,  -0.095,  0.000,  0.000,  3,  1.04000,  -61.0700,  'HERMLEIG',  20.000,  27
3084,  2,  16.231,  -6.187,  0.000,  0.000,  3,  1.00000,  -61.3851,  'MERKEL 1',  13.800,  27
3092,  2,  42.771,  5.783,  0.000,  0.000,  3,  1.04000,  -64.4096,  'ABILENE ',  13.800,  27
3098,  2,  7.494,  -1.761,  0.000,  0.000,  3,  1.04000,  -57.6390,  'FLUVANNA',  13.800,  27
3106,  3,  31.401,  -8.696,  0.000,  0.000,  3,  1.00000,  -72.8574,  'BUCHANAN',  13.200,  28
3122,  2,  10.879,  -3.348,  0.000,  0.000,  3,  1.00000,  -59.6995,  'ROSCOE 1',  18.000,  27
3127,  2,  27.965,  0.865,  0.000,  0.000,  3,  1.01540,  -62.8383,  'SWEETWAT',  115.00,  27
4010,  2,  29.715,  -2.851,  0.000,  0.000,  4,  1.03000,  -108.0024,  'SARITA 3',  20.000,  21
4026,  2,  273.680,  -8.195,  0.000,  0.000,  4,  1.03000,  -78.9242,  'CHRISTIN',  13.800,  20
4030,  3,  260.189,  9.118,  0.000,  0.000,  4,  1.01000,  -69.7914,  'FANNIN 2',  13.800,  21
4045,  2,  36.719,  4.887,  0.000,  0.000,  4,  1.02000,  -104.6832,  'FALCON H',  13.800,  19
4047,  2,  54.805,  9.823,  0.000,  0.000,  4,  1.02000,  -103.3281,  'FALCON H',  13.800,  19
4050,  2,  26.626,  -14.684,  0.000,  0.000,  4,  1.00105,  -121.2903,  'SEBASTIA',  13.800,  19
4058,  2,  39.031,  17.156,  0.000,  0.000,  4,  1.03000,  -91.6372,  'GREGORY ',  13.800,  21
4059,  2,  45.685,  19.311,  0.000,  0.000,  4,  1.03000,  -92.0587,  'GREGORY ',  13.800,  21
4060,  2,  36.065,  12.000,  0.000,  0.000,  4,  1.03000,  -90.4565,  'GREGORY ',  13.800,  21
4061,  2,  40.402,  17.525,  0.000,  0.000,  4,  1.03000,  -91.1628,  'GREGORY ',  13.800,  21
4062,  2,  42.614,  13.469,  0.000,  0.000,  4,  1.03000,  -90.3856,  'GREGORY ',  13.800,  21
4063,  2,  39.614,  17.763,  0.000,  0.000,  4,  1.03000,  -91.1006,  'GREGORY ',  13.800,  21
4082,  2,  29.844,  10.678,  0.000,  0.000,  4,  1.04000,  -97.2592,  'CORPUS C',  13.800,  21
4083,  2,  31.093,  11.517,  0.000,  0.000,  4,  1.04000,  -97.6341,  'CORPUS C',  13.800,  21
4084,  2,  56.246,  7.775,  0.000,  0.000,  4,  1.04000,  -99.6208,  'CORPUS C',  13.800,  21
4085,  2,  66.669,  8.935,  0.000,  0.000,  4,  1.04000,  -99.0545,  'CORPUS C',  13.800,  21
4115,  2,  131.557,  -12.934,  0.000,  0.000,  4,  1.04000,  -100.5919,  'LAREDO 1',  13.800,  20
4116,  2,  125.113,  -13.430,  0.000,  0.000,  4,  1.04000,  -100.5427,  'LAREDO 1',  13.800,  20
4142,  2,  99.147,  -3.506,  0.000,  0.000,  4,  1.03903,  -105.3824,  'SARITA 1',  13.800,  21
4153,  2,  307.357,  -16.159,  0.000,  0.000,  4,  1.03227,  -107.8619,  'ARMSTRON',  18.000,  21
4160,  2,  164.846,  37.417,  0.000,  0.000,  4,  1.03000,  -95.2697,  'CORPUS C',  13.800,  21
4161,  2,  82.379,  21.812,  0.000,  0.000,  4,  1.03000,  -92.5244,  'CORPUS C',  13.800,  21
4162,  2,  83.495,  20.239,  0.000,  0.000,  4,  1.03000,  -92.5885,  'CORPUS C',  13.800,  21
4166,  2,  26.318,  -5.563,  0.000,  0.000,  4,  1.01001,  -107.5187,  'SARITA 2',  13.800,  21
4177,  2,  42.666,  2.777,  0.000,  0.000,  4,  1.04000,  -104.2930,  'BRUNI 1 ',  13.800,  20
4183,  2,  373.959,  -12.419,  0.000,  0.000,  4,  1.01586,  -109.2237,  'SAN PERL',  230.00,  19
4192,  2,  897.979,  73.478,  0.000,  0.000,  4,  1.02000,  -110.8495,  'BROWNSVI',  230.00,  19
4194,  2,  810.743,  -126.953,  0.000,  0.000,  4,  1.00916,  -122.8371,  'SEBASTIA',  115.00,  19
5037,  2,  278.764,  -0.093,  0.000,  0.000,  5,  1.02026,  -68.4481,  'DALLAS 1',  13.200,  16
5038,  2,  269.763,  0.664,  0.000,  0.000,  5,  1.02002,  -68.3820,  'DALLAS 1',  13.200,  16
5039,  2,  646.023,  -14.145,  0.000,  0.000,  5,  1.02280,  -69.5748,  'DALLAS 1',  13.200,  16
5040,  2,  211.263,  1.165,  0.000,  0.000,  5,  1.02000,  -67.7230,  'DALLAS 1',  13.200,  16
5041,  2,  297.192,  -2.345,  0.000,  0.000,  5,  1.02077,  -68.5731,  'DALLAS 1',  13.200,  16
5042,  2,  251.837,  1.410,  0.000,  0.000,  5,  1.02000,  -68.2298,  'DALLAS 1',  13.200,  16
5057,  2,  200.389,  -34.397,  0.000,  0.000,  5,  1.02209,  -65.1859,  'GRAHAM 2',  13.800,  12
5058,  2,  144.917,  -23.156,  0.000,  0.000,  5,  1.01951,  -64.2764,  'GRAHAM 3',  13.800,  12
5067,  2,  423.524,  -5.417,  0.000,  0.000,  5,  1.03000,  -67.7803,  'ARLINGTO',  13.800,  17
5068,  2,  403.853,  -5.261,  0.000,  0.000,  5,  1.03000,  -67.6524,  'ARLINGTO',  13.800,  17
5069,  2,  382.505,  -4.984,  0.000,  0.000,  5,  1.03000,  -67.4818,  'ARLINGTO',  13.800,  17
5089,  2,  97.670,  23.634,  0.000,  0.000,  5,  1.01000,  -74.0747,  'CLIFTON ',  13.800,  18
5166,  2,  191.851,  -15.677,  0.000,  0.000,  5,  1.04000,  -69.8577,  'DENTON 1',  13.800,  17
5206,  2,  133.225,  -15.374,  0.000,  0.000,  5,  1.02136,  -66.3387,  'POOLVILL',  13.800,  12
5207,  2,  231.427,  -29.387,  0.000,  0.000,  5,  1.02397,  -67.2413,  'POOLVILL',  13.800,  12
5208,  2,  186.055,  -22.805,  0.000,  0.000,  5,  1.02318,  -66.9715,  'POOLVILL',  13.800,  12
5262,  2,  369.431,  4.093,  0.000,  0.000,  5,  1.01367,  -62.4259,  'GLEN ROS',  13.800,  18
5263,  2,  497.804,  1.457,  0.000,  0.000,  5,  1.01638,  -63.6556,  'GLEN ROS',  13.800,  18
5281,  2,  178.514,  0.488,  0.000,  0.000,  5,  1.01596,  -70.2451,  'TEMPLE 1',  13.800,  13
5282,  2,  210.111,  0.254,  0.000,  0.000,  5,  1.01698,  -70.5080,  'TEMPLE 1',  13.800,  13
5283,  2,  277.877,  -1.338,  0.000,  0.000,  5,  1.01836,  -70.8451,  'TEMPLE 1',  13.800,  13
5298,  2,  365.268,  -23.925,  0.000,  0.000,  5,  1.03787,  -70.7496,  'MCKINNEY',  13.800,  16
5299,  2,  152.817,  -4.169,  0.000,  0.000,  5,  1.04000,  -70.5405,  'MCKINNEY',  13.800,  16
5300,  2,  190.835,  -6.858,  0.000,  0.000,  5,  1.04000,  -70.6104,  'MCKINNEY',  13.800,  16
5302,  2,  221.230,  1.044,  0.000,  0.000,  5,  1.04000,  -67.8081,  'MCKINNEY',  13.800,  16
5303,  2,  300.405,  -8.096,  0.000,  0.000,  5,  1.04000,  -68.9173,  'MCKINNEY',  13.800,  16
5319,  2,  200.025,  -7.217,  0.000,  0.000,  5,  1.01562,  -66.6285,  'GRANBURY',  13.200,  18
5320,  2,  184.148,  -8.235,  0.000,  0.000,  5,  1.01528,  -66.4567,  'GRANBURY',  13.200,  18
5321,  2,  209.358,  -7.806,  0.000,  0.000,  5,  1.01592,  -66.6977,  'GRANBURY',  13.200,  18
5324,  2,  233.037,  5.609,  0.000,  0.000,  5,  1.04000,  -67.8535,  'DALLAS 2',  13.800,  17
5325,  2,  232.938,  7.317,  0.000,  0.000,  5,  1.04000,  -67.8481,  'DALLAS 2',  13.800,  17
5326,  2,  684.467,  -27.253,  0.000,  0.000,  5,  1.04000,  -69.9181,  'DALLAS 2',  13.800,  17
5343,  2,  159.946,  3.149,  0.000,  0.000,  5,  1.04000,  -71.3810,  'LEWISVIL',  13.800,  17
5360,  3,  187.764,  -3.898,  0.000,  0.000,  5,  1.01000,  -69.4086,  'RIESEL 1',  13.800,  13
5364,  2,  239.205,  -21.737,  0.000,  0.000,  5,  1.02325,  -67.4968,  'BRIDGEPO',  13.800,  12
5365,  2,  122.418,  -10.035,  0.000,  0.000,  5,  1.02071,  -66.6311,  'BRIDGEPO',  13.800,  12
5366,  2,  112.681,  -9.850,  0.000,  0.000,  5,  1.02013,  -66.4005,  'BRIDGEPO',  13.800,  12
5367,  2,  114.494,  -9.426,  0.000,  0.000,  5,  1.02022,  -66.4571,  'BRIDGEPO',  13.800,  12
5368,  2,  159.280,  -13.999,  0.000,  0.000,  5,  1.02207,  -67.0741,  'BRIDGEPO',  13.800,  12
5369,  2,  107.629,  -9.363,  0.000,  0.000,  5,  1.01984,  -66.3002,  'BRIDGEPO',  13.800,  12
5382,  2,  212.476,  8.854,  0.000,  0.000,  5,  1.04000,  -69.8150,  'ENNIS 2 ',  13.800,  14
5383,  2,  186.281,  9.107,  0.000,  0.000,  5,  1.04000,  -69.6533,  'ENNIS 3 ',  13.800,  14
5415,  2,  87.566,  -15.739,  0.000,  0.000,  5,  1.02632,  -66.7744,  'PALO PIN',  13.800,  12
5416,  2,  87.719,  -15.273,  0.000,  0.000,  5,  1.02620,  -66.7612,  'PALO PIN',  13.800,  12
5417,  2,  97.612,  -17.239,  0.000,  0.000,  5,  1.02669,  -66.9089,  'PALO PIN',  13.800,  12
5418,  2,  100.327,  -19.034,  0.000,  0.000,  5,  1.02715,  -66.9699,  'PALO PIN',  13.800,  12
5419,  2,  163.921,  -31.020,  0.000,  0.000,  5,  1.02853,  -67.3969,  'PALO PIN',  13.800,  12
5444,  2,  1438.922,  -117.432,  0.000,  0.000,  5,  1.02030,  -68.6884,  'MIDLOTHI',  500.00,  17
6006,  2,  83.235,  -2.870,  0.000,  0.000,  6,  1.04000,  -68.1023,  'BASTROP ',  13.800,  25
6007,  2,  133.348,  -3.475,  0.000,  0.000,  6,  1.04000,  -67.3007,  'BASTROP ',  13.800,  25
6008,  2,  73.746,  -0.668,  0.000,  0.000,  6,  1.04000,  -68.0166,  'BASTROP ',  13.800,  25
6009,  2,  50.152,  1.253,  0.000,  0.000,  6,  1.04000,  -67.2790,  'BASTROP ',  13.800,  25
6010,  2,  64.372,  -0.897,  0.000,  0.000,  6,  1.04000,  -67.8368,  'BASTROP ',  13.800,  25
6042,  2,  39.823,  4.712,  0.000,  0.000,  6,  1.04000,  -68.7842,  'AUSTIN 3',  13.800,  23
6062,  1,  312.885,  -2.990,  0.000,  0.000,  6,  1.02038,  -72.0780,  'BRENHAM ',  500.00,  25
6069,  2,  195.865,  -6.925,  0.000,  0.000,  6,  1.03000,  -70.7880,  'MARION 1',  18.000,  22
6070,  2,  79.899,  -1.601,  0.000,  0.000,  6,  1.03000,  -69.8060,  'MARION 1',  18.000,  22
6071,  2,  246.687,  -8.400,  0.000,  0.000,  6,  1.03000,  -70.9308,  'MARION 1',  18.000,  22
6072,  2,  96.109,  -1.357,  0.000,  0.000,  6,  1.03000,  -70.1044,  'MARION 1',  18.000,  22
6073,  2,  148.933,  -4.594,  0.000,  0.000,  6,  1.03000,  -70.5603,  'MARION 1',  18.000,  22
6074,  2,  150.153,  -5.611,  0.000,  0.000,  6,  1.03000,  -70.5680,  'MARION 1',  18.000,  22
6078,  2,  37.192,  -21.457,  0.000,  0.000,  6,  1.00868,  -68.9234,  'LA GRANG',  22.000,  25
6079,  2,  77.324,  -40.548,  0.000,  0.000,  6,  1.01296,  -69.5157,  'LA GRANG',  22.000,  25
6080,  2,  56.987,  -30.774,  0.000,  0.000,  6,  1.01156,  -69.3290,  'LA GRANG',  22.000,  25
6106,  2,  77.623,  -18.096,  0.000,  0.000,  6,  1.02602,  -70.1470,  'WINCHEST',  13.800,  25
6110,  2,  206.624,  -3.619,  0.000,  0.000,  6,  1.04000,  -69.6504,  'ROCKDALE',  13.800,  25
6111,  2,  209.378,  -3.155,  0.000,  0.000,  6,  1.04000,  -69.5388,  'ROCKDALE',  13.800,  25
6145,  2,  194.319,  13.954,  0.000,  0.000,  6,  1.03000,  -67.5763,  'SAN ANTO',  13.800,  22
6146,  2,  201.272,  14.217,  0.000,  0.000,  6,  1.03000,  -67.7356,  'SAN ANTO',  13.800,  22
6147,  3,  227.307,  11.560,  0.000,  0.000,  6,  1.03000,  -69.1632,  'SAN ANTO',  13.800,  22
6148,  2,  363.116,  8.320,  0.000,  0.000,  6,  1.03000,  -70.8171,  'SAN ANTO',  13.800,  22
6149,  2,  673.008,  7.869,  0.000,  0.000,  6,  1.03000,  -71.3320,  'SAN ANTO',  13.800,  22
6164,  2,  126.118,  -5.189,  0.000,  0.000,  6,  1.03000,  -69.1519,  'SEGUIN 1',  13.800,  22
6165,  2,  113.778,  -4.953,  0.000,  0.000,  6,  1.03000,  -68.9791,  'SEGUIN 1',  13.800,  22
6166,  2,  257.872,  -15.185,  0.000,  0.000,  6,  1.03000,  -69.9542,  'SEGUIN 1',  13.800,  22
6167,  2,  143.099,  -6.393,  0.000,  0.000,  6,  1.03000,  -69.3395,  'SEGUIN 1',  13.800,  22
6188,  1,  237.167,  -10.905,  0.000,  0.000,  6,  0.99868,  -72.0570,  'COLUMBUS',  230.00,  25
6195,  1,  49.149,  2.982,  0.000,  0.000,  6,  0.97782,  -79.0505,  'INDUSTRY',  115.00,  25
6213,  2,  49.368,  -1.784,  0.000,  0.000,  6,  1.04000,  -68.7986,  'MARBLE F',  13.800,  23
6214,  2,  92.350,  -2.991,  0.000,  0.000,  6,  1.04000,  -67.1842,  'MARBLE F',  13.800,  23
6215,  2,  280.496,  -41.695,  0.000,  0.000,  6,  1.04000,  -69.6976,  'MARBLE F',  13.800,  23
6216,  2,  128.904,  -12.310,  0.000,  0.000,  6,  1.04000,  -68.6101,  'MARBLE F',  13.800,  23
6243,  2,  167.476,  6.556,  0.000,  0.000,  6,  1.04000,  -70.6111,  'ELMENDOR',  13.800,  22
6244,  2,  177.601,  3.002,  0.000,  0.000,  6,  1.04000,  -69.7335,  'ELMENDOR',  13.800,  22
6245,  2,  209.582,  1.490,  0.000,  0.000,  6,  1.04000,  -70.0809,  'ELMENDOR',  13.800,  22
6246,  2,  377.541,  -12.206,  0.000,  0.000,  6,  1.04000,  -70.9994,  'ELMENDOR',  13.800,  22
6247,  2,  318.968,  -8.687,  0.000,  0.000,  6,  1.04000,  -71.3611,  'ELMENDOR',  13.800,  22
6248,  2,  162.089,  1.607,  0.000,  0.000,  6,  1.04000,  -70.7381,  'ELMENDOR',  13.800,  22
6249,  2,  131.126,  6.735,  0.000,  0.000,  6,  1.04000,  -70.1904,  'ELMENDOR',  13.800,  22
6257,  2,  126.724,  10.012,  0.000,  0.000,  6,  1.03198,  -69.5894,  'AUSTIN 2',  13.800,  23
6258,  2,  71.385,  4.726,  0.000,  0.000,  6,  1.02985,  -68.8038,  'AUSTIN 2',  13.800,  23
6260,  2,  142.044,  9.809,  0.000,  0.000,  6,  1.03163,  -69.4165,  'AUSTIN 2',  13.800,  23
6295,  2,  146.802,  3.067,  0.000,  0.000,  6,  1.03320,  -69.3644,  'CEDAR CR',  13.800,  23
6296,  2,  170.823,  3.206,  0.000,  0.000,  6,  1.03346,  -69.4686,  'CEDAR CR',  13.800,  23
6297,  2,  71.183,  2.041,  0.000,  0.000,  6,  1.03038,  -68.4129,  'CEDAR CR',  13.800,  23
6302,  2,  103.464,  -3.661,  0.000,  0.000,  6,  1.02166,  -68.8683,  'NEW BRAU',  22.000,  22
6303,  2,  295.070,  -8.682,  0.000,  0.000,  6,  1.02579,  -70.2627,  'NEW BRAU',  22.000,  22
6304,  2,  122.326,  -3.959,  0.000,  0.000,  6,  1.02275,  -69.2069,  'NEW BRAU',  22.000,  22
6305,  2,  102.363,  -3.924,  0.000,  0.000,  6,  1.02172,  -68.8419,  'NEW BRAU',  22.000,  22
6341,  1,  101.911,  -21.448,  0.000,  0.000,  6,  1.00603,  -80.5278,  'CHAPPELL',  115.00,  25
6349,  2,  1558.611,  -48.721,  0.000,  0.000,  6,  1.04000,  -71.0605,  'AUSTIN 1',  500.00,  23
7002,  1,  0.000,  0.000,  0.000,  0.000,  7,  1.03426,  -69.4204,  'PASADENA',  500.00,  4
7003,  1,  0.000,  0.000,  0.000,  0.000,  7,  1.02524,  -72.6579,  'PASADENA',  230.00,  4
7004,  1,  0.000,  0.000,  0.000,  0.000,  7,  1.02239,  -76.3025,  'PASADENA',  115.00,  4
7005,  2,  0.000,  0.000,  0.000,  0.000,  7,  1.04000,  -67.8669,  'PASADENA',  13.800,  4
7006,  2,  0.000,  0.000,  0.000,  0.000,  7,  1.04000,  -68.5372,  'PASADENA',  13.800,  4
7007,  2,  0.000,  0.000,  0.000,  0.000,  7,  1.04000,  -68.0906,  'PASADENA',  13.800,  4
7008,  2,  0.000,  0.000,  0.000,  0.000,  7,  1.04000,  -68.0230,  'PASADENA',  13.800,  4
7009,  2,  0.000,  0.000,  0.000,  0.000,  7,  1.04000,  -67.8640,  'PASADENA',  13.800,  4
7010,  1,  0.000,  0.000,  0.000,  0.000,  7,  0.99148,  -81.8929,  'PRAIRIE ',  115.00,  5
...
 0 /End of Bus data, Begin Generator data
1004,  '1',  47.152,  -30.380,  44.940,  -30.380,  1.01000,  0,  253.200,  0.00000,  1.00000,  0.00000,  0.00000,  1.00000,  1,  100.0,  211.000,  63.300
1021,  '1',  44.584,  -28.730,  42.490,  -28.730,  1.00000,  0,  239.400,  0.00000,  1.00000,  0.00000,  0.00000,  1.00000,  1,  100.0,  199.500,  59.850
1023,  '1',  40.225,  -13.955,  38.340,  -25.920,  1.01000,  0,  216.000,  0.00000,  1.00000,  0.00000,  0.00000,  1.00000,  1,  100.0,  180.000,  54.000
1033,  '1',  62.125,  -36.497,  59.210,  -40.030,  1.00000,  0,  333.600,  0.00000,  1.00000,  0.00000,  0.00000,  1.00000,  1,  100.0,  278.000,  83.400
1039,  '1',  32.963,  -14.382,  31.420,  -21.240,  1.00000,  0,  177.000,  0.00000,  1.00000,  0.00000,  0.00000,  1.00000,  1,  100.0,  147.500,  44.250
1048,  '1',  234.140,  10.052,  165.530,  -36.100,  1.00000,  0,  390.240,  0.00000,  0.10170,  0.00000,  0.00000,  1.00000,  1,  100.0,  325.200,  97.560
1049,  '1',  234.140,  29.508,  165.530,  -36.100,  1.00000,  0,  390.240,  0.00000,  0.13490,  0.00000,  0.00000,  1.00000,  1,  100.0,  325.200,  97.560
1053,  '1',  103.700,  -19.850,  91.010,  -19.850,  1.00000,  0,  214.560,  0.00000,  0.16870,  0.00000,  0.00000,  1.00000,  1,  100.0,  178.800,  53.640
1063,  '1',  153.317,  0.000,  0.000,  0.000,  1.01000,  0,  276.000,  0.00000,  1.00000,  0.00000,  0.00000,  1.00000,  1,  100.0,  230.000,  69.000
1066,  '1',  31.846,  -8.452,  30.350,  -20.520,  1.00000,  0,  171.000,  0.00000,  1.00000,  0.00000,  0.00000,  1.00000,  1,  100.0,  142.500,  42.750
1070,  '1',  35.868,  26.590,  34.190,  -23.110,  1.04000,  0,  192.600,  0.00000,  1.00000,  0.00000,  0.00000,  1.00000,  1,  100.0,  160.500,  48.150
1072,  '1',  122.941,  -2.650,  97.800,  -21.330,  1.01000,  0,  230.560,  0.00000,  0.30820,  0.00000,  0.00000,  1.00000,  1,  100.0,  192.130,  57.640
1073,  '1',  111.440,  -4.066,  97.800,  -21.330,  1.01000,  0,  230.560,  0.00000,  0.19480,  0.00000,  0.00000,  1.00000,  1,  100.0,  192.130,  57.640
1074,  '1',  111.440,  1.487,  97.800,  -21.330,  1.01000,  0,  230.560,  0.00000,  0.20960,  0.00000,  0.00000,  1.00000,  1,  100.0,  192.130,  57.640
1075,  '1',  111.440,  0.700,  97.800,  -21.330,  1.01000,  0,  230.560,  0.00000,  0.12370,  0.00000,  0.00000,  1.00000,  1,  100.0,  192.130,  57.640
1076,  '1',  111.440,  -2.608,  97.800,  -21.330,  1.01000,  0,  230.560,  0.00000,  0.10660,  0.00000,  0.00000,  1.00000,  1,  100.0,  192.130,  57.640
1077,  '1',  111.440,  0.427,  97.800,  -21.330,  1.01000,  0,  230.560,  0.00000,  0.15380,  0.00000,  0.00000,  1.00000,  1,  100.0,  192.130,  57.640
1081,  '1',  206.280,  6.792,  145.830,  -31.800,  1.01000,  0,  343.800,  0.00000,  0.14960,  0.00000,  0.00000,  1.00000,  1,  100.0,  286.500,  85.950
1082,  '1',  33.520,  -21.600,  31.950,  -21.600,  1.00000,  0,  180.000,  0.00000,  1.00000,  0.00000,  0.00000,  1.00000,  1,  100.0,  150.000,  45.000
2004,  '1',  117.540,  -36.625,  199.430,  -43.490,  1.02000,  0,  470.160,  0.00000,  0.10640,  0.00000,  0.00000,  1.00000,  1,  100.0,  391.800,  117.540
2005,  '1',  117.540,  -31.771,  199.430,  -43.490,  1.02000,  0,  470.160,  0.00000,  0.22750,  0.00000,  0.00000,  1.00000,  1,  100.0,  391.800,  117.540
2006,  '1',  117.540,  -19.413,  199.430,  -43.490,  1.02000,  0,  470.160,  0.00000,  0.20040,  0.00000,  0.00000,  1.00000,  1,  100.0,  391.800,  117.540
2013,  '1',  75.139,  -28.890,  42.730,  -28.890,  1.00000,  0,  240.720,  0.00000,  1.00000,  0.00000,  0.00000,  1.00000,  1,  100.0,  200.600,  60.180
2019,  '1',  159.018,  -14.884,  46.430,  -31.390,  1.04000,  0,  261.600,  0.00000,  1.00000,  0.00000,  0.00000,  1.00000,  1,  100.0,  218.000,  65.400
2024,  '1',  96.670,  -18.500,  84.830,  -18.500,  1.02000,  0,  200.000,  0.00000,  0.15080,  0.00000,  0.00000,  1.00000,  1,  100.0,  166.670,  50.000
2042,  '1',  31.632,  -11.460,  16.950,  -11.460,  1.01000,  0,  95.520,  0.00000,  1.00000,  0.00000,  0.00000,  1.00000,  1,  100.0,  79.600,  23.880
2057,  '1',  236.609,  -190.318,  335.520,  -87.840,  0.99000,  0,  864.000,  0.00000,  0.17700,  0.00000,  0.00000,  1.00000,  1,  100.0,  720.000,  216.000
2059,  '1',  43.766,  -11.520,  17.040,  -11.520,  1.00000,  0,  96.000,  0.00000,  1.00000,  0.00000,  0.00000,  1.00000,  1,  100.0,  80.000,  24.000
2095,  '1',  39.704,  -11.450,  16.930,  -11.450,  1.00000,  0,  95.400,  0.00000,  1.00000,  0.00000,  0.00000,  1.00000,  1,  100.0,  79.500,  23.850
2100,  '1',  38.026,  -21.600,  31.950,  -21.600,  1.02000,  0,  180.000,  0.00000,  1.00000,  0.00000,  0.00000,  1.00000,  1,  100.0,  150.000,  45.000
2103,  '1',  80.320,  -29.720,  136.280,  -29.720,  1.00000,  0,  321.280,  0.00000,  0.33430,  0.00000,  0.00000,  1.00000,  1,  100.0,  267.730,  80.320
2104,  '1',  80.320,  -29.720,  136.280,  -29.720,  1.00000,  0,  321.280,  0.00000,  0.31470,  0.00000,  0.00000,  1.00000,  1,  100.0,  267.730,  80.320
2105,  '1',  80.320,  -29.720,  136.280,  -29.720,  1.00000,  0,  321.280,  0.00000,  0.14160,  0.00000,  0.00000,  1.00000,  1,  100.0,  267.730,  80.320
2115,  '1',  107.130,  -20.500,  94.020,  -20.500,  1.00000,  0,  221.660,  0.00000,  0.14250,  0.00000,  0.00000,  1.00000,  1,  100.0,  184.720,  55.410
2116,  '1',  107.130,  -20.500,  94.020,  -20.500,  1.00000,  0,  221.660,  0.00000,  0.18690,  0.00000,  0.00000,  1.00000,  1,  100.0,  184.720,  55.410
2117,  '1',  107.130,  -20.500,  94.020,  -20.500,  1.00000,  0,  221.660,  0.00000,  0.32540,  0.00000,  0.00000,  1.00000,  1,  100.0,  184.720,  55.410
2118,  '1',  107.130,  -20.500,  94.020,  -20.500,  1.00000,  0,  221.660,  0.00000,  0.10610,  0.00000,  0.00000,  1.00000,  1,  100.0,  184.720,  55.410
2119,  '1',  107.130,  -20.500,  94.020,  -20.500,  1.00000,  0,  221.660,  0.00000,  0.13600,  0.00000,  0.00000,  1.00000,  1,  100.0,  184.720,  55.410
2120,  '1',  107.130,  -20.500,  94.020,  -20.500,  1.01000,  0,  221.660,  0.00000,  0.20680,  0.00000,  0.00000,  1.00000,  1,  100.0,  184.720,  55.410
2123,  '1',  72.208,  -26.160,  38.700,  -26.160,  1.00000,  0,  218.040,  0.00000,  1.00000,  0.00000,  0.00000,  1.00000,  1,  100.0,  181.700,  54.510
2127,  '1',  131.697,  -41.560,  61.470,  -41.560,  1.04000,  0,  346.320,  0.00000,  1.00000,  0.00000,  0.00000,  1.00000,  1,  100.0,  288.600,  86.580
3017,  '1',  37.880,  -12.548,  36.100,  -24.410,  1.01000,  0,  203.400,  0.00000,  1.00000,  0.00000,  0.00000,  1.00000,  1,  100.0,  169.500,  50.850
3020,  '1',  33.520,  0.335,  31.950,  -21.600,  1.03000,  0,  180.000,  0.00000,  1.00000,  0.00000,  0.00000,  1.00000,  1,  100.0,  150.000,  45.000
3039,  '1',  46.705,  8.369,  44.520,  -30.100,  1.04000,  0,  250.800,  0.00000,  1.00000,  0.00000,  0.00000,  1.00000,  1,  100.0,  209.000,  62.700
3045,  '1',  134.100,  5.259,  227.520,  -49.620,  1.04000,  0,  536.400,  0.00000,  0.14470,  0.00000,  0.00000,  1.00000,  1,  100.0,  447.000,  134.100
3048,  '1',  53.856,  -34.700,  51.330,  -34.700,  1.04000,  0,  289.200,  0.00000,  1.00000,  0.00000,  0.00000,  1.00000,  1,  100.0,  241.000,  72.300
3055,  '1',  54.789,  11.001,  52.220,  -35.300,  1.04000,  0,  294.200,  0.00000,  1.00000,  0.00000,  0.00000,  1.00000,  1,  100.0,  245.170,  73.550
3056,  '1',  54.789,  6.046,  52.220,  -35.300,  1.04000,  0,  294.200,  0.00000,  1.00000,  0.00000,  0.00000,  1.00000,  1,  100.0,  245.170,  73.550
3057,  '1',  54.789,  5.642,  52.220,  -35.300,  1.04000,  0,  294.200,  0.00000,  1.00000,  0.00000,  0.00000,  1.00000,  1,  100.0,  245.170,  73.550
3060,  '1',  37.013,  3.411,  35.280,  -23.850,  1.04000,  0,  198.750,  0.00000,  1.00000,  0.00000,  0.00000,  1.00000,  1,  100.0,  165.630,  49.690
3061,  '1',  37.013,  4.613,  35.280,  -23.850,  1.04000,  0,  198.750,  0.00000,  1.00000,  0.00000,  0.00000,  1.00000,  1,  100.0,  165.630,  49.690
3062,  '1',  37.013,  8.520,  35.280,  -23.850,  1.04000,  0,  198.750,  0.00000,  1.00000,  0.00000,  0.00000,  1.00000,  1,  100.0,  165.630,  49.690
3063,  '1',  37.013,  5.899,  35.280,  -23.850,  1.04000,  0,  198.750,  0.00000,  1.00000,  0.00000,  0.00000,  1.00000,  1,  100.0,  165.630,  49.690
3068,  '1',  33.520,  25.526,  31.950,  -21.600,  1.04000,  0,  180.000,  0.00000,  1.00000,  0.00000,  0.00000,  1.00000,  1,  100.0,  150.000,  45.000
3071,  '1',  38.035,  -24.510,  36.250,  -24.510,  1.00000,  0,  204.240,  0.00000,  1.00000,  0.00000,  0.00000,  1.00000,  1,  100.0,  170.200,  51.060
3081,  '1',  55.644,  4.172,  53.040,  -35.860,  1.04000,  0,  298.800,  0.00000,  1.00000,  0.00000,  0.00000,  1.00000,  1,  100.0,  249.000,  74.700
3084,  '1',  51.955,  -33.261,  49.520,  -33.480,  1.00000,  0,  279.000,  0.00000,  1.00000,  0.00000,  0.00000,  1.00000,  1,  100.0,  232.500,  69.750
3092,  '1',  44.694,  7.632,  42.600,  -28.800,  1.04000,  0,  240.000,  0.00000,  1.00000,  0.00000,  0.00000,  1.00000,  1,  100.0,  200.000,  60.000
3098,  '1',  35.755,  3.436,  34.080,  -23.040,  1.04000,  0,  192.000,  0.00000,  1.00000,  0.00000,  0.00000,  1.00000,  1,  100.0,  160.000,  48.000
3106,  '1',  21.290,  -15.955,  62.477,  -2.690,  1.00000,  0,  65.880,  0.00000,  0.29220,  0.00000,  0.00000,  1.00000,  1,  100.0,  162.800,  0.000
3122,  '1',  44.024,  -17.511,  41.960,  -28.370,  1.00000,  0,  236.400,  0.00000,  1.00000,  0.00000,  0.00000,  1.00000,  1,  100.0,  197.000,  59.100
3127,  '1',  30.168,  -19.440,  28.760,  -19.440,  1.00000,  0,  162.000,  0.00000,  1.00000,  0.00000,  0.00000,  1.00000,  1,  100.0,  135.000,  40.500
4010,  '1',  45.052,  16.012,  42.940,  -29.030,  1.03000,  0,  241.920,  0.00000,  1.00000,  0.00000,  0.00000,  1.00000,  1,  100.0,  201.600,  60.480
4026,  '1',  123.000,  32.196,  191.060,  -50.020,  1.03000,  0,  492.000,  0.00000,  0.32770,  0.00000,  0.00000,  1.00000,  1,  100.0,  410.000,  123.000
4030,  '1',  296.027,  52.554,  290.040,  -75.930,  1.01000,  0,  746.880,  0.00000,  0.27970,  0.00000,  0.00000,  1.00000,  1,  100.0,  622.400,  186.720
4045,  '1',  39.199,  4.181,  35.862,  -1.540,  1.02000,  0,  37.800,  0.00000,  0.20950,  0.00000,  0.00000,  1.00000,  1,  100.0,  93.400,  0.000
4047,  '1',  82.133,  8.121,  75.102,  -3.230,  1.02000,  0,  79.200,  0.00000,  0.32270,  0.00000,  0.00000,  1.00000,  1,  100.0,  195.700,  0.000
4050,  '1',  44.694,  -28.800,  42.600,  -28.800,  1.00000,  0,  240.000,  0.00000,  1.00000,  0.00000,  0.00000,  1.00000,  1,  100.0,  200.000,  60.000
4058,  '1',  83.520,  23.782,  73.300,  -15.980,  1.03000,  0,  172.800,  0.00000,  0.13700,  0.00000,  0.00000,  1.00000,  1,  100.0,  144.000,  43.200
4059,  '1',  83.520,  26.414,  73.300,  -15.980,  1.03000,  0,  172.800,  0.00000,  0.15140,  0.00000,  0.00000,  1.00000,  1,  100.0,  144.000,  43.200
4060,  '1',  83.520,  17.167,  73.300,  -15.980,  1.03000,  0,  172.800,  0.00000,  0.13940,  0.00000,  0.00000,  1.00000,  1,  100.0,  144.000,  43.200
4061,  '1',  99.950,  24.314,  87.720,  -19.130,  1.03000,  0,  206.800,  0.00000,  0.21560,  0.00000,  0.00000,  1.00000,  1,  100.0,  172.330,  51.700
4062,  '1',  99.950,  18.727,  87.720,  -19.130,  1.03000,  0,  206.800,  0.00000,  0.25930,  0.00000,  0.00000,  1.00000,  1,  100.0,  172.330,  51.700
4063,  '1',  99.950,  25.231,  87.720,  -19.130,  1.03000,  0,  206.800,  0.00000,  0.14410,  0.00000,  0.00000,  1.00000,  1,  100.0,  172.330,  51.700
4082,  '1',  175.250,  30.468,  123.890,  -27.020,  1.04000,  0,  292.080,  0.00000,  0.13810,  0.00000,  0.00000,  1.00000,  1,  100.0,  243.400,  73.020
4083,  '1',  175.250,  32.259,  123.890,  -27.020,  1.04000,  0,  292.080,  0.00000,  0.15700,  0.00000,  0.00000,  1.00000,  1,  100.0,  243.400,  73.020
4084,  '1',  175.250,  55.568,  123.890,  -27.020,  1.04000,  0,  292.080,  0.00000,  0.19110,  0.00000,  0.00000,  1.00000,  1,  100.0,  243.400,  73.020
4085,  '1',  253.440,  63.913,  179.170,  -39.070,  1.04000,  0,  422.400,  0.00000,  0.31920,  0.00000,  0.00000,  1.00000,  1,  100.0,  352.000,  105.600
4115,  '1',  39.540,  38.809,  67.090,  -14.630,  1.04000,  0,  158.160,  0.00000,  0.11310,  0.00000,  0.00000,  1.00000,  1,  100.0,  131.800,  39.540
4116,  '1',  39.540,  36.500,  67.090,  -14.630,  1.04000,  0,  158.160,  0.00000,  0.15150,  0.00000,  0.00000,  1.00000,  1,  100.0,  131.800,  39.540
4142,  '1',  42.012,  40.040,  40.040,  -27.070,  1.04000,  0,  225.600,  0.00000,  1.00000,  0.00000,  0.00000,  1.00000,  1,  100.0,  188.000,  56.400
4153,  '1',  63.287,  60.320,  60.320,  -40.780,  1.04000,  0,  339.840,  0.00000,  1.00000,  0.00000,  0.00000,  1.00000,  1,  100.0,  283.200,  84.960
4160,  '1',  142.390,  62.232,  100.660,  -21.950,  1.03000,  0,  237.320,  0.00000,  0.18820,  0.00000,  0.00000,  1.00000,  1,  100.0,  197.770,  59.330
4161,  '1',  142.390,  29.360,  100.660,  -21.950,  1.03000,  0,  237.320,  0.00000,  0.12390,  0.00000,  0.00000,  1.00000,  1,  100.0,  197.770,  59.330
4162,  '1',  142.390,  26.594,  100.660,  -21.950,  1.03000,  0,  237.320,  0.00000,  0.17220,  0.00000,  0.00000,  1.00000,  1,  100.0,  197.770,  59.330
4166,  '1',  44.917,  -28.940,  42.810,  -28.940,  1.00000,  0,  241.200,  0.00000,  1.00000,  0.00000,  0.00000,  1.00000,  1,  100.0,  201.000,  60.300
4177,  '1',  33.520,  4.333,  31.950,  -21.600,  1.04000,  0,  180.000,  0.00000,  1.00000,  0.00000,  0.00000,  1.00000,  1,  100.0,  150.000,  45.000
4183,  '1',  45.364,  43.240,  43.240,  -29.230,  1.03000,  0,  243.600,  0.00000,  1.00000,  0.00000,  0.00000,  1.00000,  1,  100.0,  203.000,  60.900
4192,  '1',  896.490,  102.002,  688.320,  -150.120,  1.02000,  0,  1622.76,  0.00000,  0.14340,  0.00000,  0.00000,  1.00000,  1,  100.0,  1352.31,  405.690
4194,  '1',  45.052,  42.940,  42.940,  -29.030,  1.02000,  0,  241.920,  0.00000,  1.00000,  0.00000,  0.00000,  1.00000,  1,  100.0,  201.600,  60.480
5037,  '1',  308.470,  -34.240,  157.010,  -34.240,  1.02000,  0,  370.160,  0.00000,  0.29910,  0.00000,  0.00000,  1.00000,  1,  100.0,  308.470,  92.540
5038,  '1',  308.470,  -34.240,  157.010,  -34.240,  1.02000,  0,  370.160,  0.00000,  0.12330,  0.00000,  0.00000,  1.00000,  1,  100.0,  308.470,  92.540
5039,  '1',  308.470,  -34.240,  157.010,  -34.240,  1.02000,  0,  370.160,  0.00000,  0.21470,  0.00000,  0.00000,  1.00000,  1,  100.0,  308.470,  92.540
5040,  '1',  308.470,  -26.534,  157.010,  -34.240,  1.02000,  0,  370.160,  0.00000,  0.19240,  0.00000,  0.00000,  1.00000,  1,  100.0,  308.470,  92.540
5041,  '1',  308.470,  -34.240,  157.010,  -34.240,  1.02000,  0,  370.160,  0.00000,  0.11590,  0.00000,  0.00000,  1.00000,  1,  100.0,  308.470,  92.540
5042,  '1',  308.470,  -31.319,  157.010,  -34.240,  1.02000,  0,  370.160,  0.00000,  0.19130,  0.00000,  0.00000,  1.00000,  1,  100.0,  308.470,  92.540
5057,  '1',  272.950,  -35.230,  161.530,  -35.230,  1.00000,  0,  380.820,  0.00000,  0.19130,  0.00000,  0.00000,  1.00000,  1,  100.0,  317.350,  95.200
5058,  '1',  272.920,  -35.230,  161.530,  -35.230,  1.00000,  0,  380.820,  0.00000,  0.29820,  0.00000,  0.00000,  1.00000,  1,  100.0,  317.350,  95.200
5067,  '1',  438.270,  11.992,  223.080,  -48.650,  1.03000,  0,  525.920,  0.00000,  0.32610,  0.00000,  0.00000,  1.00000,  1,  100.0,  438.270,  131.480
5068,  '1',  438.270,  10.044,  223.080,  -48.650,  1.03000,  0,  525.920,  0.00000,  0.11690,  0.00000,  0.00000,  1.00000,  1,  100.0,  438.270,  131.480
5069,  '1',  438.270,  9.251,  223.080,  -48.650,  1.03000,  0,  525.920,  0.00000,  0.10560,  0.00000,  0.00000,  1.00000,  1,  100.0,  438.270,  131.480
5089,  '1',  51.999,  26.556,  47.569,  -2.050,  1.01000,  0,  50.160,  0.00000,  0.24100,  0.00000,  0.00000,  1.00000,  1,  100.0,  123.900,  0.000
5166,  '1',  73.370,  30.448,  64.390,  -14.040,  1.04000,  0,  151.800,  0.00000,  0.13910,  0.00000,  0.00000,  1.00000,  1,  100.0,  126.500,  37.950
5206,  '1',  179.040,  -27.600,  126.570,  -27.600,  1.01000,  0,  298.400,  0.00000,  0.11980,  0.00000,  0.00000,  1.00000,  1,  100.0,  248.670,  74.600
5207,  '1',  179.040,  -27.600,  126.570,  -27.600,  1.01000,  0,  298.400,  0.00000,  0.18090,  0.00000,  0.00000,  1.00000,  1,  100.0,  248.670,  74.600
5208,  '1',  179.040,  -27.600,  126.570,  -27.600,  1.01000,  0,  298.400,  0.00000,  0.10560,  0.00000,  0.00000,  1.00000,  1,  100.0,  248.670,  74.600
5262,  '1',  1215.000,  -99.630,  447.120,  -99.630,  1.01000,  0,  1458.00,  0.00000,  0.26310,  0.00000,  0.00000,  1.00000,  1,  100.0,  1215.00,  364.500
5263,  '1',  1215.000,  -99.630,  447.120,  -99.630,  1.01000,  0,  1458.00,  0.00000,  0.16260,  0.00000,  0.00000,  1.00000,  1,  100.0,  1215.00,  364.500
5281,  '1',  155.280,  -29.720,  136.280,  -29.720,  1.00000,  0,  321.280,  0.00000,  0.10660,  0.00000,  0.00000,  1.00000,  1,  100.0,  267.730,  80.320
5282,  '1',  155.280,  -29.720,  136.280,  -29.720,  1.00000,  0,  321.280,  0.00000,  0.23940,  0.00000,  0.00000,  1.00000,  1,  100.0,  267.730,  80.320
5283,  '1',  155.280,  -29.720,  136.280,  -29.720,  1.00000,  0,  321.280,  0.00000,  0.10650,  0.00000,  0.00000,  1.00000,  1,  100.0,  267.730,  80.320
5298,  '1',  34.500,  58.530,  58.530,  -12.760,  1.04000,  0,  138.000,  0.00000,  0.13260,  0.00000,  0.00000,  1.00000,  1,  100.0,  115.000,  34.500
5299,  '1',  34.500,  38.306,  58.530,  -12.760,  1.04000,  0,  138.000,  0.00000,  0.32280,  0.00000,  0.00000,  1.00000,  1,  100.0,  115.000,  34.500
5300,  '1',  34.500,  46.211,  58.530,  -12.760,  1.04000,  0,  138.000,  0.00000,  0.21910,  0.00000,  0.00000,  1.00000,  1,  100.0,  115.000,  34.500
5302,  '1',  333.900,  52.259,  236.050,  -51.480,  1.04000,  0,  556.500,  0.00000,  0.13300,  0.00000,  0.00000,  1.00000,  1,  100.0,  463.750,  139.130
5303,  '1',  289.525,  66.818,  236.050,  -51.480,  1.04000,  0,  556.500,  0.00000,  0.17920,  0.00000,  0.00000,  1.00000,  1,  100.0,  463.750,  139.130
5319,  '1',  152.420,  -29.170,  133.770,  -29.170,  1.01000,  0,  315.360,  0.00000,  0.25070,  0.00000,  0.00000,  1.00000,  1,  100.0,  262.800,  78.840
5320,  '1',  152.420,  -29.170,  133.770,  -29.170,  1.01000,  0,  315.360,  0.00000,  0.28140,  0.00000,  0.00000,  1.00000,  1,  100.0,  262.800,  78.840
5321,  '1',  152.420,  -29.170,  133.770,  -29.170,  1.01000,  0,  315.360,  0.00000,  0.12810,  0.00000,  0.00000,  1.00000,  1,  100.0,  262.800,  78.840
5324,  '1',  284.070,  51.726,  144.590,  -31.530,  1.04000,  0,  340.880,  0.00000,  0.21670,  0.00000,  0.00000,  1.00000,  1,  100.0,  284.070,  85.220
5325,  '1',  284.070,  53.787,  144.590,  -31.530,  1.04000,  0,  340.880,  0.00000,  0.15030,  0.00000,  0.00000,  1.00000,  1,  100.0,  284.070,  85.220
5326,  '1',  284.070,  139.804,  144.590,  -31.530,  1.04000,  0,  340.880,  0.00000,  0.18810,  0.00000,  0.00000,  1.00000,  1,  100.0,  284.070,  85.220
5343,  '1',  87.085,  23.473,  79.667,  -3.430,  1.04000,  0,  84.000,  0.00000,  0.24140,  0.00000,  0.00000,  1.00000,  1,  100.0,  207.500,  0.000
5360,  '1',  254.667,  -108.376,  469.730,  -122.980,  1.01000,  0,  1209.60,  0.00000,  0.25510,  0.00000,  0.00000,  1.00000,  1,  100.0,  1008.00,  302.400
5364,  '1',  153.600,  -23.680,  108.590,  -23.680,  1.00000,  0,  256.000,  0.00000,  0.13030,  0.00000,  0.00000,  1.00000,  1,  100.0,  213.330,  64.000
5365,  '1',  153.600,  -23.680,  108.590,  -23.680,  1.00000,  0,  256.000,  0.00000,  0.11650,  0.00000,  0.00000,  1.00000,  1,  100.0,  213.330,  64.000
5366,  '1',  153.600,  -23.680,  108.590,  -23.680,  1.00000,  0,  256.000,  0.00000,  0.15490,  0.00000,  0.00000,  1.00000,  1,  100.0,  213.330,  64.000
5367,  '1',  153.600,  -23.680,  108.590,  -23.680,  1.00000,  0,  256.000,  0.00000,  0.10020,  0.00000,  0.00000,  1.00000,  1,  100.0,  213.330,  64.000
5368,  '1',  153.600,  -23.680,  108.590,  -23.680,  1.00000,  0,  256.000,  0.00000,  0.36180,  0.00000,  0.00000,  1.00000,  1,  100.0,  213.330,  64.000
5369,  '1',  153.600,  -23.680,  108.590,  -23.680,  1.00000,  0,  256.000,  0.00000,  0.24440,  0.00000,  0.00000,  1.00000,  1,  100.0,  213.330,  64.000
5382,  '1',  150.480,  86.033,  106.380,  -23.200,  1.04000,  0,  250.800,  0.00000,  0.24770,  0.00000,  0.00000,  1.00000,  1,  100.0,  209.000,  62.700
5383,  '1',  150.480,  75.728,  106.380,  -23.200,  1.04000,  0,  250.800,  0.00000,  0.39820,  0.00000,  0.00000,  1.00000,  1,  100.0,  209.000,  62.700
5415,  '1',  70.760,  -13.540,  62.100,  -13.540,  1.00000,  0,  146.400,  0.00000,  0.14030,  0.00000,  0.00000,  1.00000,  1,  100.0,  122.000,  36.600
5416,  '1',  70.760,  -13.540,  62.100,  -13.540,  1.00000,  0,  146.400,  0.00000,  0.26480,  0.00000,  0.00000,  1.00000,  1,  100.0,  122.000,  36.600
5417,  '1',  70.760,  -13.540,  62.100,  -13.540,  1.00000,  0,  146.400,  0.00000,  0.16960,  0.00000,  0.00000,  1.00000,  1,  100.0,  122.000,  36.600
5418,  '1',  68.900,  -13.190,  60.470,  -13.190,  1.00000,  0,  142.560,  0.00000,  0.34000,  0.00000,  0.00000,  1.00000,  1,  100.0,  118.800,  35.640
5419,  '1',  68.900,  -13.190,  60.470,  -13.190,  1.00000,  0,  142.560,  0.00000,  0.16420,  0.00000,  0.00000,  1.00000,  1,  100.0,  118.800,  35.640
5444,  '1',  1090.500,  -223.840,  1026.440,  -223.840,  1.01000,  0,  2419.92,  0.00000,  0.34260,  0.00000,  0.00000,  1.00000,  1,  100.0,  2016.60,  604.980
6006,  '1',  153.360,  16.030,  108.420,  -23.640,  1.04000,  0,  255.600,  0.00000,  0.18770,  0.00000,  0.00000,  1.00000,  1,  100.0,  213.000,  63.900
6007,  '1',  426.000,  27.683,  216.830,  -47.290,  1.04000,  0,  511.200,  0.00000,  0.13420,  0.00000,  0.00000,  1.00000,  1,  100.0,  426.000,  127.800
6008,  '1',  142.800,  14.637,  100.950,  -22.010,  1.04000,  0,  238.000,  0.00000,  0.20160,  0.00000,  0.00000,  1.00000,  1,  100.0,  198.330,  59.500
6009,  '1',  142.800,  9.384,  100.950,  -22.010,  1.04000,  0,  238.000,  0.00000,  0.18430,  0.00000,  0.00000,  1.00000,  1,  100.0,  198.330,  59.500
6010,  '1',  142.800,  11.710,  100.950,  -22.010,  1.04000,  0,  238.000,  0.00000,  0.15620,  0.00000,  0.00000,  1.00000,  1,  100.0,  198.330,  59.500
6042,  '1',  134.384,  11.125,  122.908,  -5.290,  1.04000,  0,  129.600,  0.00000,  0.18770,  0.00000,  0.00000,  1.00000,  1,  100.0,  320.200,  0.000
6069,  '1',  105.190,  -3.516,  92.320,  -20.130,  1.03000,  0,  217.640,  0.00000,  0.22480,  0.00000,  0.00000,  1.00000,  1,  100.0,  181.370,  54.410
6070,  '1',  105.190,  -0.929,  92.320,  -20.130,  1.03000,  0,  217.640,  0.00000,  0.24660,  0.00000,  0.00000,  1.00000,  1,  100.0,  181.370,  54.410
6071,  '1',  105.190,  -3.639,  92.320,  -20.130,  1.03000,  0,  217.640,  0.00000,  0.15280,  0.00000,  0.00000,  1.00000,  1,  100.0,  181.370,  54.410
6072,  '1',  105.190,  -0.955,  92.320,  -20.130,  1.03000,  0,  217.640,  0.00000,  0.19250,  0.00000,  0.00000,  1.00000,  1,  100.0,  181.370,  54.410
6073,  '1',  105.190,  -2.473,  92.320,  -20.130,  1.03000,  0,  217.640,  0.00000,  0.14260,  0.00000,  0.00000,  1.00000,  1,  100.0,  181.370,  54.410
6074,  '1',  105.190,  -3.167,  92.320,  -20.130,  1.03000,  0,  217.640,  0.00000,  0.11150,  0.00000,  0.00000,  1.00000,  1,  100.0,  181.370,  54.410
6078,  '1',  169.000,  -68.730,  262.510,  -68.730,  1.00000,  0,  676.000,  0.00000,  0.28900,  0.00000,  0.00000,  1.00000,  1,  100.0,  563.330,  169.000
6079,  '1',  169.000,  -68.730,  262.510,  -68.730,  1.00000,  0,  676.000,  0.00000,  0.25330,  0.00000,  0.00000,  1.00000,  1,  100.0,  563.330,  169.000
6080,  '1',  169.000,  -68.730,  262.510,  -68.730,  1.00000,  0,  676.000,  0.00000,  0.32510,  0.00000,  0.00000,  1.00000,  1,  100.0,  563.330,  169.000
6106,  '1',  36.300,  61.590,  61.590,  -13.430,  1.04000,  0,  145.200,  0.00000,  0.12010,  0.00000,  0.00000,  1.00000,  1,  100.0,  121.000,  36.300
6110,  '1',  177.180,  36.417,  275.220,  -72.050,  1.04000,  0,  708.720,  0.00000,  0.16800,  0.00000,  0.00000,  1.00000,  1,  100.0,  590.600,  177.180
6111,  '1',  198.450,  37.010,  308.260,  -80.700,  1.04000,  0,  793.800,  0.00000,  0.21900,  0.00000,  0.00000,  1.00000,  1,  100.0,  661.500,  198.450
6145,  '1',  446.000,  11.529,  227.010,  -49.510,  1.03000,  0,  535.200,  0.00000,  0.14770,  0.00000,  0.00000,  1.00000,  1,  100.0,  446.000,  133.800
6146,  '1',  446.000,  11.496,  227.010,  -49.510,  1.03000,  0,  535.200,  0.00000,  0.11950,  0.00000,  0.00000,  1.00000,  1,  100.0,  446.000,  133.800
6147,  '1',  337.600,  5.276,  474.390,  -103.450,  1.03000,  0,  1118.40,  0.00000,  0.10440,  0.00000,  0.00000,  1.00000,  1,  100.0,  932.000,  279.600
6148,  '1',  216.600,  1.860,  367.500,  -80.140,  1.03000,  0,  866.400,  0.00000,  0.23830,  0.00000,  0.00000,  1.00000,  1,  100.0,  722.000,  216.600
6149,  '1',  216.600,  4.860,  367.500,  -80.140,  1.03000,  0,  866.400,  0.00000,  0.12770,  0.00000,  0.00000,  1.00000,  1,  100.0,  722.000,  216.600
6164,  '1',  169.240,  4.203,  119.640,  -26.090,  1.03000,  0,  282.060,  0.00000,  0.30070,  0.00000,  0.00000,  1.00000,  1,  100.0,  235.050,  70.520
6165,  '1',  169.240,  3.153,  119.640,  -26.090,  1.03000,  0,  282.060,  0.00000,  0.18390,  0.00000,  0.00000,  1.00000,  1,  100.0,  235.050,  70.520
6166,  '1',  169.240,  7.660,  119.640,  -26.090,  1.03000,  0,  282.060,  0.00000,  0.25100,  0.00000,  0.00000,  1.00000,  1,  100.0,  235.050,  70.520
6167,  '1',  169.240,  4.440,  119.640,  -26.090,  1.03000,  0,  282.060,  0.00000,  0.13970,  0.00000,  0.00000,  1.00000,  1,  100.0,  235.050,  70.520
6213,  '1',  74.663,  -1.023,  68.286,  -2.940,  1.04000,  0,  72.000,  0.00000,  0.33650,  0.00000,  0.00000,  1.00000,  1,  100.0,  177.900,  0.000
6214,  '1',  231.794,  1.398,  212.059,  -9.130,  1.04000,  0,  223.600,  0.00000,  0.21900,  0.00000,  0.00000,  1.00000,  1,  100.0,  552.300,  0.000
6215,  '1',  231.794,  -8.294,  212.059,  -9.130,  1.04000,  0,  223.600,  0.00000,  0.20110,  0.00000,  0.00000,  1.00000,  1,  100.0,  552.300,  0.000
6216,  '1',  231.794,  -2.100,  212.059,  -9.130,  1.04000,  0,  223.600,  0.00000,  0.37760,  0.00000,  0.00000,  1.00000,  1,  100.0,  552.300,  0.000
6243,  '1',  131.760,  36.453,  93.150,  -20.310,  1.04000,  0,  219.600,  0.00000,  0.28800,  0.00000,  0.00000,  1.00000,  1,  100.0,  183.000,  54.900
6244,  '1',  256.280,  44.384,  151.680,  -33.080,  1.04000,  0,  357.600,  0.00000,  0.12500,  0.00000,  0.00000,  1.00000,  1,  100.0,  298.000,  89.400
6245,  '1',  256.280,  51.403,  151.680,  -33.080,  1.04000,  0,  357.600,  0.00000,  0.24960,  0.00000,  0.00000,  1.00000,  1,  100.0,  298.000,  89.400
6246,  '1',  256.280,  97.563,  151.680,  -33.080,  1.04000,  0,  357.600,  0.00000,  0.16990,  0.00000,  0.00000,  1.00000,  1,  100.0,  298.000,  89.400
6247,  '1',  132.000,  80.060,  93.320,  -20.350,  1.04000,  0,  220.000,  0.00000,  0.11730,  0.00000,  0.00000,  1.00000,  1,  100.0,  183.330,  55.000
6248,  '1',  132.000,  40.451,  93.320,  -20.350,  1.04000,  0,  220.000,  0.00000,  0.27550,  0.00000,  0.00000,  1.00000,  1,  100.0,  183.330,  55.000
6249,  '1',  132.000,  27.556,  93.320,  -20.350,  1.04000,  0,  220.000,  0.00000,  0.17480,  0.00000,  0.00000,  1.00000,  1,  100.0,  183.330,  55.000
6257,  '1',  139.680,  -21.530,  98.750,  -21.530,  1.02000,  0,  232.800,  0.00000,  0.15520,  0.00000,  0.00000,  1.00000,  1,  100.0,  194.000,  58.200
6258,  '1',  139.680,  -21.530,  98.750,  -21.530,  1.02000,  0,  232.800,  0.00000,  0.26310,  0.00000,  0.00000,  1.00000,  1,  100.0,  194.000,  58.200
6260,  '1',  185.040,  -28.530,  130.810,  -28.530,  1.02000,  0,  308.400,  0.00000,  0.11970,  0.00000,  0.00000,  1.00000,  1,  100.0,  257.000,  77.100
6295,  '1',  148.490,  -22.890,  104.970,  -22.890,  1.02000,  0,  247.480,  0.00000,  0.21970,  0.00000,  0.00000,  1.00000,  1,  100.0,  206.230,  61.870
6296,  '1',  148.490,  -22.890,  104.970,  -22.890,  1.02000,  0,  247.480,  0.00000,  0.25670,  0.00000,  0.00000,  1.00000,  1,  100.0,  206.230,  61.870
6297,  '1',  148.500,  -22.890,  104.970,  -22.890,  1.02000,  0,  247.480,  0.00000,  0.14170,  0.00000,  0.00000,  1.00000,  1,  100.0,  206.230,  61.900
6302,  '1',  178.020,  -27.440,  125.850,  -27.440,  1.00000,  0,  296.700,  0.00000,  0.25960,  0.00000,  0.00000,  1.00000,  1,  100.0,  247.250,  74.180
6303,  '1',  178.020,  -27.440,  125.850,  -27.440,  1.00000,  0,  296.700,  0.00000,  0.27270,  0.00000,  0.00000,  1.00000,  1,  100.0,  247.250,  74.180
6304,  '1',  178.020,  -27.440,  125.850,  -27.440,  1.00000,  0,  296.700,  0.00000,  0.11710,  0.00000,  0.00000,  1.00000,  1,  100.0,  247.250,  74.180
6305,  '1',  178.020,  -27.440,  125.850,  -27.440,  1.00000,  0,  296.700,  0.00000,  0.12770,  0.00000,  0.00000,  1.00000,  1,  100.0,  247.250,  74.180
6349,  '1',  522.720,  247.574,  369.540,  -80.580,  1.04000,  0,  871.200,  0.00000,  0.16290,  0.00000,  0.00000,  1.00000,  1,  100.0,  726.000,  217.800
7005,  '1',  117.360,  23.608,  82.970,  -18.090,  1.04000,  0,  195.600,  0.00000,  0.13000,  0.00000,  0.00000,  1.00000,  1,  100.0,  163.000,  48.900
7006,  '1',  117.360,  42.048,  82.970,  -18.090,  1.04000,  0,  195.600,  0.00000,  0.19150,  0.00000,  0.00000,  1.00000,  1,  100.0,  163.000,  48.900
7007,  '1',  117.360,  27.457,  82.970,  -18.090,  1.04000,  0,  195.600,  0.00000,  0.34300,  0.00000,  0.00000,  1.00000,  1,  100.0,  163.000,  48.900
7008,  '1',  117.360,  25.671,  82.970,  -18.090,  1.04000,  0,  195.600,  0.00000,  0.21570,  0.00000,  0.00000,  1.00000,  1,  100.0,  163.000,  48.900
7009,  '1',  117.360,  23.182,  82.970,  -18.090,  1.04000,  0,  195.600,  0.00000,  0.13060,  0.00000,  0.00000,  1.00000,  1,  100.0,  163.000,  48.900
7015,  '1',  0.000,  0.000,  2.040,  -0.440,  1.04000,  0,  4.800,  0.00000,  0.22520,  0.00000,  0.00000,  1.00000,  0,  100.0,  4.000,  1.200
7045,  '1',  135.680,  93.404,  95.920,  -20.920,  1.03000,  0,  226.140,  0.00000,  0.12400,  0.00000,  0.00000,  1.00000,  1,  100.0,  188.450,  56.530
7046,  '1',  135.680,  95.920,  95.920,  -20.920,  1.03000,  0,  226.140,  0.00000,  0.10650,  0.00000,  0.00000,  1.00000,  1,  100.0,  188.450,  56.530
7061,  '1',  34.470,  14.692,  58.480,  -12.750,  1.00000,  0,  137.880,  0.00000,  0.12410,  0.00000,  0.00000,  1.00000,  1,  100.0,  114.900,  34.470
7062,  '1',  34.470,  16.044,  58.480,  -12.750,  1.00000,  0,  137.880,  0.00000,  0.19500,  0.00000,  0.00000,  1.00000,  1,  100.0,  114.900,  34.470
7063,  '1',  34.470,  14.754,  58.480,  -12.750,  1.00000,  0,  137.880,  0.00000,  0.15790,  0.00000,  0.00000,  1.00000,  1,  100.0,  114.900,  34.470
7064,  '1',  34.470,  19.598,  58.480,  -12.750,  1.00000,  0,  137.880,  0.00000,  0.22800,  0.00000,  0.00000,  1.00000,  1,  100.0,  114.900,  34.470
7065,  '1',  34.470,  17.609,  58.480,  -12.750,  1.00000,  0,  137.880,  0.00000,  0.22800,  0.00000,  0.00000,  1.00000,  1,  100.0,  114.900,  34.470
...
 0 /End of Generator data, Begin Branch data
1004,  1023,  '99',  0.01289,  0.30463,  0.00000,  0.00,  0.00,  0.00,  0.00000,  0.000,  0.00000,  0.00000,  0.00000,  0.00000,  1
1004,  2019,  '99',  0.10720,  1.05031,  0.00000,  0.00,  0.00,  0.00,  0.00000,  0.000,  0.00000,  0.00000,  0.00000,  0.00000,  1
1004,  2100,  '99',  0.04463,  0.57098,  0.00000,  0.00,  0.00,  0.00,  0.00000,  0.000,  0.00000,  0.00000,  0.00000,  0.00000,  1
1004,  2127,  '99',  0.16569,  0.88049,  0.00000,  0.00,  0.00,  0.00,  0.00000,  0.000,  0.00000,  0.00000,  0.00000,  0.00000,  1
1004,  3039,  '99',  0.02930,  0.30902,  0.00000,  0.00,  0.00,  0.00,  0.00000,  0.000,  0.00000,  0.00000,  0.00000,  0.00000,  1
1004,  3045,  '99',  0.74349,  4.41629,  0.00000,  0.00,  0.00,  0.00,  0.00000,  0.000,  0.00000,  0.00000,  0.00000,  0.00000,  1
1004,  3048,  '99',  0.03947,  0.28621,  0.00000,  0.00,  0.00,  0.00,  0.00000,  0.000,  0.00000,  0.00000,  0.00000,  0.00000,  1
1004,  3055,  '99',  0.70907,  4.00350,  0.00000,  0.00,  0.00,  0.00,  0.00000,  0.000,  0.00000,  0.00000,  0.00000,  0.00000,  1
1004,  3081,  '99',  0.03682,  0.39983,  0.00000,  0.00,  0.00,  0.00,  0.00000,  0.000,  0.00000,  0.00000,  0.00000,  0.00000,  1
1004,  3098,  '99',  0.02588,  0.42286,  0.00000,  0.00,  0.00,  0.00,  0.00000,  0.000,  0.00000,  0.00000,  0.00000,  0.00000,  1
1004,  3122,  '99',  0.58410,  4.69178,  0.00000,  0.00,  0.00,  0.00,  0.00000,  0.000,  0.00000,  0.00000,  0.00000,  0.00000,  1
1004,  3127,  '99',  0.41946,  1.52192,  0.00000,  0.00,  0.00,  0.00,  0.00000,  0.000,  0.00000,  0.00000,  0.00000,  0.00000,  1
1021,  1063,  '99',  0.06701,  0.96899,  0.00000,  0.00,  0.00,  0.00,  0.00000,  0.000,  0.00000,  0.00000,  0.00000,  0.00000,  1
1021,  1066,  '99',  0.18239,  1.59160,  0.00000,  0.00,  0.00,  0.00,  0.00000,  0.000,  0.00000,  0.00000,  0.00000,  0.00000,  1
1021,  1072,  '99',  0.54401,  4.62807,  0.00000,  0.00,  0.00,  0.00,  0.00000,  0.000,  0.00000,  0.00000,  0.00000,  0.00000,  1
1021,  1076,  '99',  0.22479,  2.67699,  0.00000,  0.00,  0.00,  0.00,  0.00000,  0.000,  0.00000,  0.00000,  0.00000,  0.00000,  1
1021,  1081,  '99',  0.17491,  2.16309,  0.00000,  0.00,  0.00,  0.00,  0.00000,  0.000,  0.00000,  0.00000,  0.00000,  0.00000,  1
1021,  3020,  '99',  0.01354,  2.42656,  0.00000,  0.00,  0.00,  0.00,  0.00000,  0.000,  0.00000,  0.00000,  0.00000,  0.00000,  1
1021,  3045,  '99',  0.21450,  4.10482,  0.00000,  0.00,  0.00,  0.00,  0.00000,  0.000,  0.00000,  0.00000,  0.00000,  0.00000,  1
1021,  3048,  '99',  0.12592,  1.07174,  0.00000,  0.00,  0.00,  0.00,  0.00000,  0.000,  0.00000,  0.00000,  0.00000,  0.00000,  1
1021,  3061,  '99',  -0.02199,  4.93433,  0.00000,  0.00,  0.00,  0.00,  0.00000,  0.000,  0.00000,  0.00000,  0.00000,  0.00000,  1
1021,  3062,  '99',  0.01816,  2.49384,  0.00000,  0.00,  0.00,  0.00,  0.00000,  0.000,  0.00000,  0.00000,  0.00000,  0.00000,  1
1021,  3063,  '99',  0.02306,  3.54697,  0.00000,  0.00,  0.00,  0.00,  0.00000,  0.000,  0.00000,  0.00000,  0.00000,  0.00000,  1
1021,  3127,  '99',  0.84559,  2.55462,  0.00000,  0.00,  0.00,  0.00,  0.00000,  0.000,  0.00000,  0.00000,  0.00000,  0.00000,  1
1023,  2100,  '99',  0.07322,  3.13256,  0.00000,  0.00,  0.00,  0.00,  0.00000,  0.000,  0.00000,  0.00000,  0.00000,  0.00000,  1
1023,  3048,  '99',  0.70619,  4.64941,  0.00000,  0.00,  0.00,  0.00,  0.00000,  0.000,  0.00000,  0.00000,  0.00000,  0.00000,  1
1023,  3098,  '99',  0.01569,  2.25909,  0.00000,  0.00,  0.00,  0.00,  0.00000,  0.000,  0.00000,  0.00000,  0.00000,  0.00000,  1
1033,  1039,  '99',  0.07137,  0.79371,  0.00000,  0.00,  0.00,  0.00,  0.00000,  0.000,  0.00000,  0.00000,  0.00000,  0.00000,  1
1033,  1066,  '99',  -0.50916,  4.37561,  0.00000,  0.00,  0.00,  0.00,  0.00000,  0.000,  0.00000,  0.00000,  0.00000,  0.00000,  1
1033,  1070,  '99',  0.05262,  0.56323,  0.00000,  0.00,  0.00,  0.00,  0.00000,  0.000,  0.00000,  0.00000,  0.00000,  0.00000,  1
1033,  1081,  '99',  0.00300,  0.03089,  0.00000,  0.00,  0.00,  0.00,  0.00000,  0.000,  0.00000,  0.00000,  0.00000,  0.00000,  1
1033,  1082,  '99',  0.08195,  0.28367,  0.00000,  0.00,  0.00,  0.00,  0.00000,  0.000,  0.00000,  0.00000,  0.00000,  0.00000,  1
1033,  3020,  '99',  0.03693,  0.81552,  0.00000,  0.00,  0.00,  0.00,  0.00000,  0.000,  0.00000,  0.00000,  0.00000,  0.00000,  1
1033,  4026,  '99',  0.22815,  4.49189,  0.00000,  0.00,  0.00,  0.00,  0.00000,  0.000,  0.00000,  0.00000,  0.00000,  0.00000,  1
1033,  4115,  '99',  0.14022,  3.22485,  0.00000,  0.00,  0.00,  0.00,  0.00000,  0.000,  0.00000,  0.00000,  0.00000,  0.00000,  1
1033,  4116,  '99',  0.18079,  3.39168,  0.00000,  0.00,  0.00,  0.00,  0.00000,  0.000,  0.00000,  0.00000,  0.00000,  0.00000,  1
1039,  1048,  '99',  0.08669,  3.08680,  0.00000,  0.00,  0.00,  0.00,  0.00000,  0.000,  0.00000,  0.00000,  0.00000,  0.00000,  1
1039,  1053,  '99',  0.01357,  4.13217,  0.00000,  0.00,  0.00,  0.00,  0.00000,  0.000,  0.00000,  0.00000,  0.00000,  0.00000,  1
1039,  1070,  '99',  1.17627,  4.15383,  0.00000,  0.00,  0.00,  0.00,  0.00000,  0.000,  0.00000,  0.00000,  0.00000,  0.00000,  1
1039,  1082,  '99',  0.01333,  0.16918,  0.00000,  0.00,  0.00,  0.00,  0.00000,  0.000,  0.00000,  0.00000,  0.00000,  0.00000,  1
1048,  1049,  '99',  0.00176,  0.34034,  0.00000,  0.00,  0.00,  0.00,  0.00000,  0.000,  0.00000,  0.00000,  0.00000,  0.00000,  1
1048,  1053,  '99',  0.00200,  0.25442,  0.00000,  0.00,  0.00,  0.00,  0.00000,  0.000,  0.00000,  0.00000,  0.00000,  0.00000,  1
1048,  1072,  '99',  0.87472,  4.69045,  0.00000,  0.00,  0.00,  0.00,  0.00000,  0.000,  0.00000,  0.00000,  0.00000,  0.00000,  1
1048,  1076,  '99',  0.41414,  2.71927,  0.00000,  0.00,  0.00,  0.00,  0.00000,  0.000,  0.00000,  0.00000,  0.00000,  0.00000,  1
1048,  1081,  '99',  0.54627,  3.61562,  0.00000,  0.00,  0.00,  0.00,  0.00000,  0.000,  0.00000,  0.00000,  0.00000,  0.00000,  1
1048,  1082,  '99',  0.41651,  1.72838,  0.00000,  0.00,  0.00,  0.00,  0.00000,  0.000,  0.00000,  0.00000,  0.00000,  0.00000,  1
1048,  3048,  '99',  0.40990,  2.79793,  0.00000,  0.00,  0.00,  0.00,  0.00000,  0.000,  0.00000,  0.00000,  0.00000,  0.00000,  1
1049,  1053,  '99',  -0.00894,  0.45534,  0.00000,  0.00,  0.00,  0.00,  0.00000,  0.000,  0.00000,  0.00000,  0.00000,  0.00000,  1
1049,  1076,  '99',  0.60729,  4.88600,  0.00000,  0.00,  0.00,  0.00,  0.00000,  0.000,  0.00000,  0.00000,  0.00000,  0.00000,  1
1049,  1082,  '99',  0.66026,  3.11309,  0.00000,  0.00,  0.00,  0.00,  0.00000,  0.000,  0.00000,  0.00000,  0.00000,  0.00000,  1
1053,  1076,  '99',  0.46381,  3.65138,  0.00000,  0.00,  0.00,  0.00,  0.00000,  0.000,  0.00000,  0.00000,  0.00000,  0.00000,  1
1053,  1081,  '99',  0.00299,  0.02982,  0.00000,  0.00,  0.00,  0.00,  0.00000,  0.000,  0.00000,  0.00000,  0.00000,  0.00000,  1
1053,  1082,  '99',  0.49984,  2.32591,  0.00000,  0.00,  0.00,  0.00,  0.00000,  0.000,  0.00000,  0.00000,  0.00000,  0.00000,  1
1053,  3048,  '99',  0.45552,  3.75646,  0.00000,  0.00,  0.00,  0.00,  0.00000,  0.000,  0.00000,  0.00000,  0.00000,  0.00000,  1
1063,  1066,  '99',  0.02856,  0.76179,  0.00000,  0.00,  0.00,  0.00,  0.00000,  0.000,  0.00000,  0.00000,  0.00000,  0.00000,  1
1063,  1076,  '99',  0.45372,  4.01791,  0.00000,  0.00,  0.00,  0.00,  0.00000,  0.000,  0.00000,  0.00000,  0.00000,  0.00000,  1
1063,  1081,  '99',  0.48604,  3.95091,  0.00000,  0.00,  0.00,  0.00,  0.00000,  0.000,  0.00000,  0.00000,  0.00000,  0.00000,  1
1063,  3048,  '99',  0.20067,  1.62903,  0.00000,  0.00,  0.00,  0.00,  0.00000,  0.000,  0.00000,  0.00000,  0.00000,  0.00000,  1
1063,  3127,  '99',  0.84282,  3.06519,  0.00000,  0.00,  0.00,  0.00,  0.00000,  0.000,  0.00000,  0.00000,  0.00000,  0.00000,  1
1066,  1076,  '99',  0.44235,  4.27663,  0.00000,  0.00,  0.00,  0.00,  0.00000,  0.000,  0.00000,  0.00000,  0.00000,  0.00000,  1
1066,  1081,  '99',  0.58019,  4.81812,  0.00000,  0.00,  0.00,  0.00,  0.00000,  0.000,  0.00000,  0.00000,  0.00000,  0.00000,  1
1066,  3048,  '99',  0.37989,  2.57073,  0.00000,  0.00,  0.00,  0.00,  0.00000,  0.000,  0.00000,  0.00000,  0.00000,  0.00000,  1
1070,  1082,  '99',  0.02819,  0.20008,  0.00000,  0.00,  0.00,  0.00,  0.00000,  0.000,  0.00000,  0.00000,  0.00000,  0.00000,  1
1070,  3020,  '99',  -0.04837,  3.39779,  0.00000,  0.00,  0.00,  0.00,  0.00000,  0.000,  0.00000,  0.00000,  0.00000,  0.00000,  1
1072,  1073,  '99',  0.13355,  1.24311,  0.00000,  0.00,  0.00,  0.00,  0.00000,  0.000,  0.00000,  0.00000,  0.00000,  0.00000,  1
1072,  1074,  '99',  0.06378,  1.19128,  0.00000,  0.00,  0.00,  0.00,  0.00000,  0.000,  0.00000,  0.00000,  0.00000,  0.00000,  1
1072,  1075,  '99',  0.04270,  0.95352,  0.00000,  0.00,  0.00,  0.00,  0.00000,  0.000,  0.00000,  0.00000,  0.00000,  0.00000,  1
1072,  1076,  '99',  0.01696,  0.47234,  0.00000,  0.00,  0.00,  0.00,  0.00000,  0.000,  0.00000,  0.00000,  0.00000,  0.00000,  1
1072,  1077,  '99',  0.06981,  1.15238,  0.00000,  0.00,  0.00,  0.00,  0.00000,  0.000,  0.00000,  0.00000,  0.00000,  0.00000,  1
1072,  1081,  '99',  0.02133,  0.63267,  0.00000,  0.00,  0.00,  0.00,  0.00000,  0.000,  0.00000,  0.00000,  0.00000,  0.00000,  1
1072,  3048,  '99',  0.01303,  0.50020,  0.00000,  0.00,  0.00,  0.00,  0.00000,  0.000,  0.00000,  0.00000,  0.00000,  0.00000,  1
1073,  1074,  '99',  0.16600,  1.81166,  0.00000,  0.00,  0.00,  0.00,  0.00000,  0.000,  0.00000,  0.00000,  0.00000,  0.00000,  1
1073,  1075,  '99',  0.12015,  1.45057,  0.00000,  0.00,  0.00,  0.00,  0.00000,  0.000,  0.00000,  0.00000,  0.00000,  0.00000,  1
1073,  1076,  '99',  0.05313,  0.71881,  0.00000,  0.00,  0.00,  0.00,  0.00000,  0.000,  0.00000,  0.00000,  0.00000,  0.00000,  1
...